/*--------------------------------*- C++ -*----------------------------------*\
  =========                 |
  \\      /  F ield         | OpenFOAM: The Open Source CFD Toolbox
   \\    /   O peration     | Website:  https://openfoam.org
    \\  /    A nd           | Version:  12
     \\/     M anipulation  |
\*---------------------------------------------------------------------------*/

FoamFile
{
    format      ascii;
    class       dictionary;
    location    "constant";
    object      radiationProperties;
}
// * * * * * * * * * * * * * * * * * * * * * * * * * * * * * * * * * * * * * //

// radiation on;

radiationModel  none; //fvDOM; none;

solverFreq 10;

fvDOMCoeffs
{
    nPhi        2;      // azimuthal angles in PI/2 on X-Y.(from Y to X)
    nTheta      2;      // polar angles in PI (from Z to X-Y plane)
    tolerance   1e-1;   // convergence tolerance for radiation iteration
    maxIter     1;      // maximum number of iterations
}

// Number of flow iterations per radiation iteration

absorptionEmissionModel greyMean;

// constantCoeffs
// {
//     absorptivity    0.01;
//     emissivity      0.01;
//     E               0;
// }

greyMeanCoeffs
{
    lookUpTableFileName     none;

    EhrrCoeff 0.0;

    H2O
    {
        Tcommon         200;
        invTemp         true;
        Tlow            200;
        Thigh           2500;

        loTcoeffs
        (
            0
            0
            0
            0
            0
            0
        );
        hiTcoeffs
        (
            -0.23093
            -1.12390e3
             9.4153e6
            -2.99885e9
             0.51382e12
            -1.868e10
        );
    }

}

scatterModel    none;

sootModel       none;

// ************************************************************************* //
